Circuit: * C:\Users\ferra\OneDrive\Desktop\Appunti\3-1\Elettronica\spice\2a sim\consegna definitiva\schema 1.3 Luca Fantin 2000156.asc

Error on line 1217 : .model pmos pmos level=1 vt0=-0.7 v kp=12u lambda=0 w=100u l=1u
	* Unrecognized parameter "v" -- ignored
Error on line 1216 : .model nmos nmos level=1 vt0=0.7 v kp=48u lambda=0.01 w=25u l=1u
	* Unrecognized parameter "v" -- ignored
Instance "m1": Length shorter than recommended for a level 1 MOSFET.
Instance "m2": Length shorter than recommended for a level 1 MOSFET.
Per .tran options, skipping operating point for transient analysis.

Date: Fri Jan 27 11:32:13 2023
Total elapsed time: 0.173 seconds.

tnom = 27
temp = 27
method = modified trap
totiter = 21207
traniter = 21207
tranpoints = 10346
accept = 10267
rejected = 79
matrix size = 5
fillins = 0
solver = Normal
Matrix Compiler1: 132 bytes object code size  0.1/0.0/[0.0]
Matrix Compiler2: 335 bytes object code size  0.1/0.1/[0.0]

