Circuit: * C:\Users\ferra\OneDrive\Desktop\Appunti\3-1\Elettronica\spice\esercizi\Draft2.asc

Error on line 2 : v1 n001 0 v
	 Unknown parameter "v"
V1: Missing value, assumed 0V @ DC

Date: Wed Dec 14 18:16:53 2022
Total elapsed time: 0.038 seconds.

tnom = 27
temp = 27
method = trap
totiter = 46
traniter = 0
tranpoints = 0
accept = 0
rejected = 0
matrix size = 6
fillins = 3
solver = Normal
Matrix Compiler1: 308 bytes object code size
Matrix Compiler2: 450 bytes object code size
