Circuit: * C:\Users\ferra\OneDrive\Desktop\Appunti\3-1\Elettronica\spice\esercizi\pag15es3.asc

Error on line 2 : v1 n001 0 v
	 Unknown parameter "v"
V1: Missing value, assumed 0V @ DC

Date: Tue Dec 13 18:19:21 2022
Total elapsed time: 0.061 seconds.

tnom = 27
temp = 27
method = trap
totiter = 66
traniter = 0
tranpoints = 0
accept = 0
rejected = 0
matrix size = 9
fillins = 1
solver = Normal
Matrix Compiler1: 332 bytes object code size
Matrix Compiler2: 581 bytes object code size
