Circuit: * C:\Users\ferra\OneDrive\Desktop\Appunti\3-1\Elettronica\spice\esercizi\pag1es1p1.asc

Direct Newton iteration for .op point succeeded.
Ignoring empty pin current: Ix(x1:inn)
Ignoring empty pin current: Ix(x1:inp)
Ignoring empty pin current: Ix(x1:inn)
Ignoring empty pin current: Ix(x1:inp)

Date: Fri Nov 04 11:19:55 2022
Total elapsed time: 0.135 seconds.

tnom = 27
temp = 27
method = modified trap
totiter = 2085
traniter = 2082
tranpoints = 1042
accept = 1042
rejected = 0
matrix size = 5
fillins = 1
solver = Normal
Matrix Compiler1:      13 opcodes  0.1/[0.1]/0.1
Matrix Compiler2: off  [0.1]/0.1/0.1

