Circuit: * C:\Users\ferra\OneDrive\Desktop\Appunti\3-1\Elettronica\spice\esercizi\pag1es1.asc

Direct Newton iteration for .op point succeeded.
Ignoring empty pin current: Ix(x2:inn)
Ignoring empty pin current: Ix(x2:inp)
Ignoring empty pin current: Ix(x2:inn)
Ignoring empty pin current: Ix(x2:inp)

Date: Wed Nov 02 10:11:53 2022
Total elapsed time: 0.088 seconds.

tnom = 27
temp = 27
method = modified trap
totiter = 2085
traniter = 2082
tranpoints = 1042
accept = 1042
rejected = 0
matrix size = 5
fillins = 2
solver = Normal
Matrix Compiler1:      16 opcodes  0.2/[0.1]/0.1
Matrix Compiler2: off  [0.1]/0.1/0.1

