Circuit: * C:\Users\ferra\OneDrive\Desktop\Appunti\3-1\Elettronica\spice\esercizi\pag18es8.asc

Direct Newton iteration for .op point succeeded.

Date: Mon Jan 16 17:40:25 2023
Total elapsed time: 0.063 seconds.

tnom = 27
temp = 27
method = trap
totiter = 9
traniter = 0
tranpoints = 0
accept = 0
rejected = 0
matrix size = 11
fillins = 0
solver = Normal
Matrix Compiler1:      22 opcodes
Matrix Compiler2: 753 bytes object code size
