Circuit: * C:\Users\ferra\OneDrive\Desktop\Appunti\3-1\Elettronica\spice\esercizi\pag7es14p1.asc

Ignoring empty pin current: Ix(u1:1)
Ignoring empty pin current: Ix(u1:2)
Direct Newton iteration for .op point succeeded.

Date: Mon Nov 14 17:47:49 2022
Total elapsed time: 0.028 seconds.

tnom = 27
temp = 27
method = trap
totiter = 3
traniter = 0
tranpoints = 0
accept = 0
rejected = 0
matrix size = 5
fillins = 2
solver = Normal
Matrix Compiler1: 230 bytes object code size
Matrix Compiler2: 355 bytes object code size
