Circuit: * C:\Users\ferra\OneDrive\Desktop\Appunti\3-1\Elettronica\spice\esercizi\pag7es13p1.asc

Ignoring empty pin current: Ix(u1:1)
Ignoring empty pin current: Ix(u1:2)
Direct Newton iteration for .op point succeeded.

Date: Sun Nov 13 15:41:09 2022
Total elapsed time: 0.047 seconds.

tnom = 27
temp = 27
method = trap
totiter = 3
traniter = 0
tranpoints = 0
accept = 0
rejected = 0
matrix size = 3
fillins = 2
solver = Normal
Matrix Compiler1: 184 bytes object code size
Matrix Compiler2: 223 bytes object code size
