Circuit: * C:\Users\ferra\OneDrive\Desktop\Appunti\3-1\Elettronica\spice\esercizi\pag7es5.asc

Ignoring empty pin current: Ix(u1:1)
Ignoring empty pin current: Ix(u1:2)
Direct Newton iteration for .op point succeeded.

Date: Sat Nov 12 12:35:09 2022
Total elapsed time: 0.046 seconds.

tnom = 27
temp = 27
method = trap
totiter = 3
traniter = 0
tranpoints = 0
accept = 0
rejected = 0
matrix size = 4
fillins = 1
solver = Normal
Matrix Compiler1: 136 bytes object code size
Matrix Compiler2: 222 bytes object code size
