Circuit: * C:\Users\ferra\OneDrive\Desktop\Appunti\3-1\Elettronica\spice\esercizi\pag7es14.asc

WARNING: Less than two connections to node N005.  This node is used by RL.
Direct Newton iteration for .op point succeeded.
Ignoring empty pin current: Ix(u1:1)
Ignoring empty pin current: Ix(u1:2)

Date: Mon Nov 14 17:25:00 2022
Total elapsed time: 0.041 seconds.

tnom = 27
temp = 27
method = trap
totiter = 3
traniter = 0
tranpoints = 0
accept = 0
rejected = 0
matrix size = 6
fillins = 2
solver = Normal
Matrix Compiler1: 280 bytes object code size
Matrix Compiler2: 428 bytes object code size
