Circuit: * C:\Users\ferra\OneDrive\Desktop\Appunti\3-1\Elettronica\spice\esercizi\pag8es7p2.asc

Error on line 5 : v1 n003 0 v
	 Unknown parameter "v"
V1: Missing value, assumed 0V @ DC
Direct Newton iteration for .op point succeeded.
Ignoring empty pin current: Ix(u1:1)
Ignoring empty pin current: Ix(u1:2)

Date: Mon Nov 14 22:19:02 2022
Total elapsed time: 0.029 seconds.

tnom = 27
temp = 27
method = trap
totiter = 3
traniter = 0
tranpoints = 0
accept = 0
rejected = 0
matrix size = 4
fillins = 1
solver = Normal
Matrix Compiler1: 154 bytes object code size
Matrix Compiler2: 236 bytes object code size
