Circuit: * C:\Users\ferra\OneDrive\Desktop\Appunti\3-1\Elettronica\spice\esercizi\pag8es14.asc

Ignoring empty pin current: Ix(u1:1)
Ignoring empty pin current: Ix(u1:2)
Ignoring empty pin current: Ix(u2:1)
Ignoring empty pin current: Ix(u2:2)
Direct Newton iteration for .op point succeeded.

Date: Wed Nov 16 17:24:31 2022
Total elapsed time: 0.050 seconds.

tnom = 27
temp = 27
method = trap
totiter = 3
traniter = 0
tranpoints = 0
accept = 0
rejected = 0
matrix size = 8
fillins = 2
solver = Normal
Matrix Compiler1: 380 bytes object code size
Matrix Compiler2: 514 bytes object code size
