Circuit: * C:\Users\ferra\OneDrive\Desktop\Appunti\3-1\Elettronica\spice\2a sim\schemi\fig.asc

Direct Newton iteration for .op point succeeded.

Date: Mon Jan 02 21:10:16 2023
Total elapsed time: 0.061 seconds.

tnom = 27
temp = 27
method = trap
totiter = 9
traniter = 0
tranpoints = 0
accept = 0
rejected = 0
matrix size = 12
fillins = 0
solver = Normal
Matrix Compiler1:      27 opcodes
Matrix Compiler2: 954 bytes object code size
