Circuit: * C:\Users\ferra\OneDrive\Desktop\Appunti\3-1\Elettronica\spice\2a sim\schemi\schema 1.3.asc

Error on line 1217 : .model pmos pmos level=1 vt0=-0.7 v kp=12u lambda=0 w=100u l=1u
	* Unrecognized parameter "v" -- ignored
Error on line 1216 : .model nmos nmos level=1 vt0=0.7 v kp=48u lambda=0.01 w=25u l=1u
	* Unrecognized parameter "v" -- ignored
Instance "m1": Length shorter than recommended for a level 1 MOSFET.
Instance "m2": Length shorter than recommended for a level 1 MOSFET.
Per .tran options, skipping operating point for transient analysis.

Date: Mon Jan 16 10:47:09 2023
Total elapsed time: 0.306 seconds.

tnom = 27
temp = 27
method = modified trap
totiter = 20416
traniter = 20416
tranpoints = 10197
accept = 10158
rejected = 39
matrix size = 5
fillins = 0
solver = Normal
Matrix Compiler1: 132 bytes object code size  0.1/0.1/[0.1]
Matrix Compiler2: 335 bytes object code size  0.1/0.2/[0.1]

