Circuit: * C:\Users\ferra\OneDrive\Desktop\Appunti\3-1\Elettronica\spice\2a sim\schemi\schema 1.4.2.asc

Error on line 1217 : .model pmos pmos level=1 vt0=-0.7 v kp=12u lambda=0 w=100u l=1u
	* Unrecognized parameter "v" -- ignored
Error on line 1216 : .model nmos nmos level=1 vt0=0.7 v kp=48u lambda=0.01 w= 2.5e-006  l=1u
	* Unrecognized parameter "v" -- ignored
Instance "m1": Length shorter than recommended for a level 1 MOSFET.
Instance "m2": Length shorter than recommended for a level 1 MOSFET.
Instance "m2": Width narrower than recommended for a level 1 MOSFET.
Per .tran options, skipping operating point for transient analysis.
.step wn=2.5e-006
.step wn=5e-006
.step wn=1.25e-005
.step wn=5e-005
.step wn=0.000125
.step wn=0.00025

Date: Mon Jan 16 10:49:52 2023
Total elapsed time: 0.963 seconds.

tnom = 27
temp = 27
method = modified trap
totiter = 20416
traniter = 20416
tranpoints = 10197
accept = 10158
rejected = 39
matrix size = 5
fillins = 0
solver = Normal
Matrix Compiler1:       8 opcodes  0.1/[0.0]/0.1
Matrix Compiler2: off  [0.1]/0.1/0.1

