Circuit: * C:\Users\ferra\OneDrive\Desktop\1a sim\schemi\Draft1.asc

Error on line 2 : v1 n001 0 v
	 Unknown parameter "v"
V1: Missing value, assumed 0V @ DC
.OP point found by inspection.

Date: Sat Dec 10 13:57:21 2022
Total elapsed time: 0.032 seconds.

tnom = 27
temp = 27
method = trap
totiter = 18
traniter = 0
tranpoints = 0
accept = 0
rejected = 0
matrix size = 3
fillins = 0
solver = Normal
Matrix Compiler1: 50 bytes object code size
Matrix Compiler2: 175 bytes object code size
