Circuit: * C:\Users\ferra\OneDrive\Desktop\1a sim\schemi\schema 2.3 Luca Fantin 2000156.asc

Error on line 7 : vref n001 0 v
	 Unknown parameter "v"
Vref: Missing value, assumed 0V @ DC
Ignoring empty pin current: Ix(u1:1)
Ignoring empty pin current: Ix(u1:2)
.step delta=200
.step delta=600
.step delta=1000
.step delta=1400
.step delta=1800

Date: Fri Dec 02 20:08:00 2022
Total elapsed time: 0.262 seconds.

tnom = 27
temp = 27
method = trap
totiter = 23
traniter = 0
tranpoints = 0
accept = 0
rejected = 0
matrix size = 5
fillins = 1
solver = Normal
Matrix Compiler1: 186 bytes object code size
Matrix Compiler2: 349 bytes object code size
